OLIO EXTRA VERGINE
CIRIO
HUILE D'OLIVE VIERGE
EXTRA VIRGIN OLIVE D
NATIVES OLIVENOL
1856
Riserva Francesco
100% Italiano
OLIO DI OLIVA DI CATEGORIA SUPERIORE OTTENUTO DIRETTAMENTE DAL
E UNICAMENTE MEDIANTE PROCEDIMENTI MECCANICI. OTTENUTO DA OL
RACCOLTE E MOLITE IN ITALIA.
SUPERIOR CATEGORY OLIVE OIL OBTAINED DIRECTLY FROM OLIVES AND S
BY MECHANICAL MEANS. 100% ITALIAN.
HUILE D'OLIVE DE CATÉGORIE SUPÉRIEURE OBTENUE DIRECTEMENT DES
ET UNIQUEMENT PAR DES PROCÉDÉS MÉCANIQUES. 100% ITALIENNE
ERSTE GÜTEKLASSE - DIREKT AUS OLIVEN AUSSCHLIEBLICH MIT ME
VERFAHREN GEWONNEN. 100% ITALIENISCH.
CONSERVARE CHIUSO IN UN LUOG
INFORMAZIONI NUTRIZIONALI/NUTRITIONAL
FONTI DI CALORE E AL RIPARO
INFORMATIONS/INFORMATION
STORE IN A COOL, DRY PLACE AWA
NUTRITIONNELLES/NAHRWERTDEKLARATION
LIGHT. I A CONSERVER FERMÉ
FRAIS, A L'ABRI DE LA LUMIERE
per/for/pour/pro100ml
EINEM KUHLEN, TROCKENEN 0
DIREKTEM LICHT AUFBEWAHREN.
3378 kJ
CONFEZIONATO SU LICENZA/
822kcal
PACKED UNDER LICENSE/
GRASSI/FAT/MATIERES GRASSES / FETT
91g
EMBALLÉ SOUS LICENCE/
di i/ of which / dont / davon
ABGEFÜLLT UNTER LIZENZ: C
ACIDI GRASSISATURI/SATURATES/
PIETRO CORICELLI SPA
ACIDES GRAS SATURÉS/
13g
LOC. MADONNA DI LUGO 44
GESÂTTIGTE FETTSÄUREN
SPOLETO (PG) - ITALIA/ITALY/
RBOIDRAT / CARBOHYDRATE /
0g
FERNA
BOTTIGUIA BOTTLE
CIDES/KOHLENHYDRATE
BOUTEILLE/FLASCHE
SCHRAHBVERSCHAESS
C/LDPE90
di cui I of which/dont/davon
GL71
0g
PLASTICA/PLASTIC
VETRO/GLASS/VERRE/GLAS
0
FR
BOUCHON
SALE/SALT/SEL/SALZ
0g
THERMO
RETRACTABLE
DA CONSUMARSE PREFERIBILMENTE ENTRO IL/BEST BEFORE A CONSOMMER DE
02/02/2025
